Version 4
SHEET 1 1668 1008
WIRE -848 -528 -880 -528
WIRE -672 -528 -768 -528
WIRE -576 -528 -608 -528
WIRE -880 -368 -880 -528
WIRE -752 -368 -880 -368
WIRE -576 -368 -576 -528
WIRE -576 -368 -672 -368
WIRE 224 -368 -576 -368
WIRE 544 -368 224 -368
WIRE 224 -304 224 -368
WIRE -576 -240 -576 -368
WIRE 224 -176 224 -224
WIRE 352 -176 224 -176
WIRE -576 -128 -576 -176
WIRE -576 -128 -624 -128
WIRE 224 -128 224 -176
WIRE 352 -128 352 -176
WIRE -880 -64 -880 -368
WIRE -880 -64 -1056 -64
WIRE -800 -64 -880 -64
WIRE -576 -64 -720 -64
WIRE -112 -64 -576 -64
WIRE 16 -64 -32 -64
WIRE 112 -64 16 -64
WIRE 176 -64 112 -64
WIRE 16 32 16 -64
WIRE 112 32 112 -64
WIRE 352 32 352 -64
WIRE -1056 48 -1056 -64
WIRE 544 96 544 -368
WIRE 656 96 544 96
WIRE 656 176 656 96
WIRE 544 192 544 96
WIRE -1056 224 -1056 128
WIRE 16 224 16 112
WIRE 16 224 -1056 224
WIRE 112 224 112 96
WIRE 112 224 16 224
WIRE 224 224 224 -64
WIRE 224 224 112 224
WIRE 352 224 352 112
WIRE 352 224 224 224
WIRE -1056 272 -1056 224
WIRE 16 320 16 224
WIRE 352 320 352 224
WIRE 112 336 112 224
WIRE 544 352 544 256
WIRE 656 352 656 256
WIRE 656 352 544 352
WIRE -880 496 -880 -64
WIRE -800 496 -880 496
WIRE -624 496 -624 -128
WIRE -624 496 -720 496
WIRE -112 496 -624 496
WIRE 16 496 16 400
WIRE 16 496 -32 496
WIRE 112 496 112 400
WIRE 112 496 16 496
WIRE 176 496 112 496
WIRE 224 496 224 224
WIRE 352 496 352 400
WIRE -576 608 -576 -64
WIRE 224 608 224 560
WIRE 352 608 352 560
WIRE 352 608 224 608
WIRE 224 656 224 608
WIRE -880 800 -880 496
WIRE -752 800 -880 800
WIRE -576 800 -576 672
WIRE -576 800 -672 800
WIRE 224 800 224 736
WIRE 224 800 -576 800
WIRE 544 800 544 352
WIRE 544 800 224 800
WIRE -880 960 -880 800
WIRE -848 960 -880 960
WIRE -672 960 -768 960
WIRE -576 960 -576 800
WIRE -576 960 -608 960
FLAG -1056 272 0
SYMBOL Misc\\SCR 208 560 M180
WINDOW 3 -168 -2 Left 2
SYMATTR InstName U2
SYMATTR Value TN3050H-12LY
SYMBOL ind 208 640 R0
SYMATTR InstName L2
SYMATTR Value 10µ
SYMBOL cap 96 336 R0
SYMATTR InstName C1
SYMATTR Value 1n
SYMBOL res 0 304 R0
SYMATTR InstName R1
SYMATTR Value 5000
SYMBOL res -16 480 R90
WINDOW 0 0 56 VBottom 2
WINDOW 3 32 56 VTop 2
SYMATTR InstName R2
SYMATTR Value 100
SYMBOL ind -656 784 R90
WINDOW 0 8 142 VBottom 2
WINDOW 3 -21 83 VTop 2
SYMATTR InstName L3
SYMATTR Value 300µ
SYMBOL cap -608 944 R90
WINDOW 0 0 32 VBottom 2
WINDOW 3 32 32 VTop 2
SYMATTR InstName C2
SYMATTR Value 10n
SYMBOL res -752 944 R90
WINDOW 0 0 56 VBottom 2
WINDOW 3 32 56 VTop 2
SYMATTR InstName R3
SYMATTR Value 100
SYMBOL cap 336 496 R0
SYMATTR InstName C3
SYMATTR Value 10
SYMBOL res 336 304 R0
SYMATTR InstName R4
SYMATTR Value 100
SYMBOL diode -592 608 R0
SYMATTR InstName D1
SYMATTR Value MUR460
SYMBOL res -704 480 R90
WINDOW 0 0 56 VBottom 2
WINDOW 3 32 56 VTop 2
SYMATTR InstName R5
SYMATTR Value 100
SYMBOL Misc\\SCR 208 -128 R0
WINDOW 3 -168 -2 Left 2
SYMATTR InstName U1
SYMATTR Value TN3050H-12LY
SYMBOL ind 208 -208 M180
WINDOW 0 36 80 Left 2
WINDOW 3 36 40 Left 2
SYMATTR InstName L1
SYMATTR Value 10µ
SYMBOL cap 96 96 M180
WINDOW 0 24 56 Left 2
WINDOW 3 24 8 Left 2
SYMATTR InstName C4
SYMATTR Value 1n
SYMBOL res 0 128 M180
WINDOW 0 36 76 Left 2
WINDOW 3 36 40 Left 2
SYMATTR InstName R6
SYMATTR Value 5000
SYMBOL res -16 -48 M270
WINDOW 0 32 56 VTop 2
WINDOW 3 0 56 VBottom 2
SYMATTR InstName R7
SYMATTR Value 100
SYMBOL ind -656 -352 M270
WINDOW 0 32 56 VTop 2
WINDOW 3 5 56 VBottom 2
SYMATTR InstName L4
SYMATTR Value 300µ
SYMBOL cap -608 -512 M270
WINDOW 0 32 32 VTop 2
WINDOW 3 0 32 VBottom 2
SYMATTR InstName C5
SYMATTR Value 10n
SYMBOL res -752 -512 M270
WINDOW 0 32 56 VTop 2
WINDOW 3 0 56 VBottom 2
SYMATTR InstName R8
SYMATTR Value 100
SYMBOL cap 336 -64 M180
WINDOW 0 24 56 Left 2
WINDOW 3 24 8 Left 2
SYMATTR InstName C6
SYMATTR Value 10n
SYMBOL res 336 128 M180
WINDOW 0 36 76 Left 2
WINDOW 3 36 40 Left 2
SYMATTR InstName R9
SYMATTR Value 100
SYMBOL diode -592 -176 M180
WINDOW 0 24 64 Left 2
WINDOW 3 24 0 Left 2
SYMATTR InstName D2
SYMATTR Value MUR460
SYMBOL res -704 -48 M270
WINDOW 0 32 56 VTop 2
WINDOW 3 0 56 VBottom 2
SYMATTR InstName R10
SYMATTR Value 100
SYMBOL voltage -1056 32 R0
WINDOW 123 0 0 Left 0
WINDOW 39 24 124 Left 2
SYMATTR SpiceLine Rser=1
SYMATTR InstName V1
SYMATTR Value 100
SYMBOL cap 528 192 R0
SYMATTR InstName C7
SYMATTR Value 5µ
SYMBOL ind 640 160 R0
SYMATTR InstName L5
SYMATTR Value 100µ
TEXT -232 720 Left 2 !.tran 0 5m 0 startup
TEXT -472 856 Left 2 !.inc C:\\Program Files\\LT\\Lib\\st_high-temperature_scr_pspice\\st_high-temperature_scr.lib
TEXT -472 896 Left 2 !.inc C:\\Program Files\\LT\\Lib\\en.ST_ultrafast_800v_1000v_1200v_diodes_pspice_models_v5\\ST_ULTRAFAST_800V_1000V_1200V_V9.LIB
